ieee_feeder/ieee37config.txt
New Line.L1     Phases=1 Bus1=701  Bus2=702  LineCode=722s  Length=14.399999999999999
New Line.L2     Phases=1 Bus1=702  Bus2=705  LineCode=724s  Length=6.0
New Line.L3     Phases=1 Bus1=702  Bus2=713  LineCode=723s  Length=5.4
New Line.L4     Phases=1 Bus1=702  Bus2=703  LineCode=722s  Length=19.8
New Line.L5     Phases=1 Bus1=703  Bus2=727  LineCode=724s  Length=3.5999999999999996
New Line.L6     Phases=1 Bus1=703  Bus2=730  LineCode=723s  Length=4.0
New Line.L7     Phases=1 Bus1=704  Bus2=714  LineCode=724s  Length=1.2
New Line.L8     Phases=1 Bus1=704  Bus2=720  LineCode=723s  Length=12.0
New Line.L9     Phases=1 Bus1=705  Bus2=742  LineCode=724s  Length=4.8
New Line.L10    Phases=1 Bus1=705  Bus2=712  LineCode=724s  Length=3.5999999999999996
New Line.L11    Phases=1 Bus1=706  Bus2=725  LineCode=724s  Length=4.2
New Line.L12    Phases=1 Bus1=707  Bus2=724  LineCode=724s  Length=11.399999999999999
New Line.L13    Phases=1 Bus1=707  Bus2=722  LineCode=724s  Length=1.7999999999999998
New Line.L14    Phases=1 Bus1=708  Bus2=733  LineCode=723s  Length=4.8
New Line.L15    Phases=1 Bus1=708  Bus2=732  LineCode=724s  Length=4.8
New Line.L16    Phases=1 Bus1=709  Bus2=731  LineCode=723s  Length=9.0
New Line.L17    Phases=1 Bus1=709  Bus2=708  LineCode=723s  Length=4.8
New Line.L18    Phases=1 Bus1=710  Bus2=735  LineCode=724s  Length=3.0
New Line.L19    Phases=1 Bus1=710  Bus2=736  LineCode=724s  Length=17.4
New Line.L20    Phases=1 Bus1=711  Bus2=741  LineCode=723s  Length=6.0
New Line.L21    Phases=1 Bus1=711  Bus2=740  LineCode=724s  Length=3.0
New Line.L22    Phases=1 Bus1=713  Bus2=704  LineCode=723s  Length=7.800000000000001
New Line.L23    Phases=1 Bus1=714  Bus2=718  LineCode=724s  Length=7.800000000000001
New Line.L24    Phases=1 Bus1=720  Bus2=707  LineCode=724s  Length=13.799999999999999
New Line.L25    Phases=1 Bus1=720  Bus2=706  LineCode=723s  Length=9.0
New Line.L26    Phases=1 Bus1=727  Bus2=744  LineCode=723s  Length=4.2
New Line.L27    Phases=1 Bus1=730  Bus2=709  LineCode=723s  Length=3.0
New Line.L28    Phases=1 Bus1=733  Bus2=734  LineCode=723s  Length=8.4
New Line.L29    Phases=1 Bus1=734  Bus2=737  LineCode=723s  Length=9.6
New Line.L30    Phases=1 Bus1=734  Bus2=710  LineCode=724s  Length=7.800000000000001
New Line.L31    Phases=1 Bus1=737  Bus2=738  LineCode=723s  Length=6.0
New Line.L32    Phases=1 Bus1=738  Bus2=711  LineCode=723s  Length=6.0
New Line.L33    Phases=1 Bus1=744  Bus2=728  LineCode=724s  Length=3.0
New Line.L34    Phases=1 Bus1=744  Bus2=729  LineCode=724s  Length=4.2
New Line.L35    Phases=1 Bus1=sourcebus Bus2=701  LineCode=721s  Length=17.75
